3
Properties=species:S:1:pos:R:3 potential=-76.3489282457 mu="-0.637098 -0.0 0.367594" alpha="9.931846 0.0 0.205188 0.0 9.459315 -0.0 0.205188 -0.0 10.169095" beta="16.473351 0.0 1.285041 0.0 4.880128 0.0 1.285041 0.0 5.496061 0.0 4.880128 0.0 4.880128 0.0 -2.815723 0.0 -2.815723 0.0 1.285041 0.0 5.496061 0.0 -2.815723 0.0 5.496061 0.0 -13.96102" pbc="T T T"
O        0.05754500       0.00000000      -0.03320300
H       -0.07216500      -0.00000000       0.92983800
H       -0.84112200       0.00000000      -0.40288900
3
Properties=species:S:1:pos:R:3 potential=-76.3489282457 mu="-0.637098 -0.0 0.367594" alpha="9.931846 0.0 0.205188 0.0 9.459315 -0.0 0.205188 -0.0 10.169095" beta="16.473351 0.0 1.285041 0.0 4.880128 0.0 1.285041 0.0 5.496061 0.0 4.880128 0.0 4.880128 0.0 -2.815723 0.0 -2.815723 0.0 1.285041 0.0 5.496061 0.0 -2.815723 0.0 5.496061 0.0 -13.96102" pbc="T T T"
O        0.04499700       0.03748096      -0.03137377
H       -0.05901861      -0.08803964       0.92659178
H       -0.65512121      -0.50681396      -0.42867421
3
Properties=species:S:1:pos:R:3 potential=-76.3489282457 mu="-0.637098 -0.0 0.367594" alpha="9.931846 0.0 0.205188 0.0 9.459315 -0.0 0.205188 -0.0 10.169095" beta="16.473351 0.0 1.285041 0.0 4.880128 0.0 1.285041 0.0 5.496061 0.0 4.880128 0.0 4.880128 0.0 -2.815723 0.0 -2.815723 0.0 1.285041 0.0 5.496061 0.0 -2.815723 0.0 5.496061 0.0 -13.96102" pbc="T T T"
O        0.05140837       0.03256907      -0.02665148
H       -0.17124424      -0.05635632       0.91504419
H       -0.64464809      -0.46054170      -0.49207311
